data_CH2-CH2OH2
_audit_creation_date              2023-12-21
_audit_creation_method            'Materials Studio'
_symmetry_space_group_name_H-M    'P1'
_symmetry_Int_Tables_number       1
_symmetry_cell_setting            triclinic
loop_
_symmetry_equiv_pos_as_xyz
  x,y,z
_cell_length_a                    10.1003
_cell_length_b                    10.1003
_cell_length_c                    18.1852
_cell_angle_alpha                 90.0000
_cell_angle_beta                  90.0000
_cell_angle_gamma                 120.0000
loop_
_atom_site_label
_atom_site_type_symbol
_atom_site_fract_x
_atom_site_fract_y
_atom_site_fract_z
_atom_site_U_iso_or_equiv
_atom_site_adp_type
_atom_site_occupancy
Ni2    Ni    0.00000   0.00000   0.00000   0.00000  Uiso   1.00
Ni3    Ni    0.25000   0.00000   0.00000   0.00000  Uiso   1.00
Ni4    Ni    0.50000   0.00000   0.00000   0.00000  Uiso   1.00
Ni5    Ni    0.75000   0.00000   0.00000   0.00000  Uiso   1.00
Ni6    Ni    0.00000   0.25000   0.00000   0.00000  Uiso   1.00
Ni7    Ni    0.25000   0.25000   0.00000   0.00000  Uiso   1.00
Ni8    Ni    0.50000   0.25000   0.00000   0.00000  Uiso   1.00
Ni9    Ni    0.75000   0.25000   0.00000   0.00000  Uiso   1.00
Ni10   Ni    0.00000   0.50000   0.00000   0.00000  Uiso   1.00
Ni11   Ni    0.25000   0.50000   0.00000   0.00000  Uiso   1.00
Ni12   Ni    0.50000   0.50000   0.00000   0.00000  Uiso   1.00
Ni13   Ni    0.75000   0.50000   0.00000   0.00000  Uiso   1.00
Ni14   Ni    0.00000   0.75000   0.00000   0.00000  Uiso   1.00
Ni15   Ni    0.25000   0.75000   0.00000   0.00000  Uiso   1.00
Ni16   Ni    0.50000   0.75000   0.00000   0.00000  Uiso   1.00
Ni17   Ni    0.75000   0.75000   0.00000   0.00000  Uiso   1.00
Ni18   Ni    0.08494   0.16897   0.11141   0.00000  Uiso   1.00
Ni19   Ni    0.33540   0.16941   0.11266   0.00000  Uiso   1.00
Ni20   Ni    0.58460   0.16926   0.11271   0.00000  Uiso   1.00
Ni21   Ni    0.83427   0.16859   0.11130   0.00000  Uiso   1.00
Ni22   Ni    0.08449   0.41857   0.11215   0.00000  Uiso   1.00
Ni23   Ni    0.33530   0.41839   0.11221   0.00000  Uiso   1.00
Ni24   Ni    0.58429   0.41803   0.11354   0.00000  Uiso   1.00
Ni25   Ni    0.83358   0.41840   0.11232   0.00000  Uiso   1.00
Ni26   Ni    0.08397   0.66834   0.11221   0.00000  Uiso   1.00
Ni27   Ni    0.33449   0.66810   0.11195   0.00000  Uiso   1.00
Ni28   Ni    0.58388   0.66801   0.11226   0.00000  Uiso   1.00
Ni29   Ni    0.83480   0.66808   0.11210   0.00000  Uiso   1.00
Ni30   Ni    0.08409   0.91853   0.11152   0.00000  Uiso   1.00
Ni31   Ni    0.33505   0.91980   0.11163   0.00000  Uiso   1.00
Ni32   Ni    0.58478   0.91840   0.11144   0.00000  Uiso   1.00
Ni33   Ni    0.83411   0.91778   0.11206   0.00000  Uiso   1.00
Ni34   Ni    0.16913   0.83733   0.22348   0.00000  Uiso   1.00
Ni35   Ni    0.66957   0.58830   0.22471   0.00000  Uiso   1.00
Ni36   Ni    0.42067   0.09035   0.22672   0.00000  Uiso   1.00
Ni37   Ni    0.16901   0.08704   0.22372   0.00000  Uiso   1.00
Ni38   Ni    0.66881   0.08685   0.22374   0.00000  Uiso   1.00
Ni39   Ni    0.16863   0.58648   0.22405   0.00000  Uiso   1.00
Ni40   Ni    0.41912   0.83764   0.22338   0.00000  Uiso   1.00
Ni41   Ni    0.91750   0.33603   0.22420   0.00000  Uiso   1.00
Ni42   Ni    0.91881   0.08678   0.22377   0.00000  Uiso   1.00
Ni43   Ni    0.91828   0.83703   0.22534   0.00000  Uiso   1.00
Ni44   Ni    0.66956   0.83685   0.22521   0.00000  Uiso   1.00
Ni45   Ni    0.16925   0.33582   0.22427   0.00000  Uiso   1.00
Ni46   Ni    0.91584   0.58426   0.22514   0.00000  Uiso   1.00
Ni47   Ni    0.41923   0.58453   0.22505   0.00000  Uiso   1.00
Ni48   Ni    0.42051   0.33616   0.22827   0.00000  Uiso   1.00
Ni49   Ni    0.66621   0.33612   0.22827   0.00000  Uiso   1.00
Ni50   Ni    0.00670   0.75607   0.33499   0.00000  Uiso   1.00
Ni51   Ni    0.24945   0.00073   0.33521   0.00000  Uiso   1.00
Ni52   Ni    0.25217   0.75352   0.33527   0.00000  Uiso   1.00
Ni53   Ni    0.50234   0.00153   0.33537   0.00000  Uiso   1.00
Ni54   Ni    0.50051   0.75647   0.33483   0.00000  Uiso   1.00
Ni55   Ni    0.75389   0.00786   0.33591   0.00000  Uiso   1.00
Ni56   Ni    0.00337   0.25605   0.33630   0.00000  Uiso   1.00
Ni57   Ni    0.00506   0.00803   0.33583   0.00000  Uiso   1.00
Ni58   Ni    0.49645   0.24371   0.35563   0.00000  Uiso   1.00
Ni59   Ni    0.75385   0.25289   0.33658   0.00000  Uiso   1.00
Ni60   Ni    0.00365   0.50346   0.33589   0.00000  Uiso   1.00
Ni61   Ni    0.24994   0.25326   0.33670   0.00000  Uiso   1.00
Ni62   Ni    0.25054   0.50406   0.33586   0.00000  Uiso   1.00
Ni63   Ni    0.75714   0.76357   0.34215   0.00000  Uiso   1.00
Ni64   Ni    0.75866   0.50637   0.33941   0.00000  Uiso   1.00
Ni65   Ni    0.49925   0.50667   0.33922   0.00000  Uiso   1.00
C66    C     0.39054   0.19232   0.46814   0.00000  Uiso   1.00
C67    C     0.54844   0.19406   0.48101   0.00000  Uiso   1.00
H68    H     0.31791   0.07622   0.50926   0.00000  Uiso   1.00
H69    H     0.46481   0.31155   0.48516   0.00000  Uiso   1.00
H70    H     0.66831   0.30315   0.51239   0.00000  Uiso   1.00
H71    H     0.54620   0.08747   0.49337   0.00000  Uiso   1.00
H72    H     0.32248   0.21687   0.50469   0.00000  Uiso   1.00
O73    O     0.61504   0.22586   0.43102   0.00000  Uiso   1.00
loop_
_geom_bond_atom_site_label_1
_geom_bond_atom_site_label_2
_geom_bond_distance
_geom_bond_site_symmetry_2
_ccdc_geom_bond_type
Ni2    Ni3     2.525   .     S
Ni2    Ni6     2.525   .     S
Ni2    Ni7     2.525   .     S
Ni2    Ni18    2.508   .     S
Ni2    Ni5     2.525   1_455 S
Ni2    Ni14    2.525   1_545 S
Ni2    Ni17    2.525   1_445 S
Ni2    Ni30    2.492   1_545 S
Ni2    Ni33    2.502   1_445 S
Ni3    Ni4     2.525   .     S
Ni3    Ni7     2.525   .     S
Ni3    Ni8     2.525   .     S
Ni3    Ni19    2.528   .     S
Ni3    Ni14    2.525   1_545 S
Ni3    Ni15    2.525   1_545 S
Ni3    Ni30    2.494   1_545 S
Ni3    Ni31    2.492   1_545 S
Ni4    Ni5     2.525   .     S
Ni4    Ni8     2.525   .     S
Ni4    Ni9     2.525   .     S
Ni4    Ni20    2.528   .     S
Ni4    Ni15    2.525   1_545 S
Ni4    Ni16    2.525   1_545 S
Ni4    Ni31    2.491   1_545 S
Ni4    Ni32    2.495   1_545 S
Ni5    Ni9     2.525   .     S
Ni5    Ni21    2.504   .     S
Ni5    Ni2     2.525   1_655 S
Ni5    Ni6     2.525   1_655 S
Ni5    Ni16    2.525   1_545 S
Ni5    Ni17    2.525   1_545 S
Ni5    Ni32    2.489   1_545 S
Ni5    Ni33    2.504   1_545 S
Ni6    Ni7     2.525   .     S
Ni6    Ni10    2.525   .     S
Ni6    Ni11    2.525   .     S
Ni6    Ni18    2.493   .     S
Ni6    Ni22    2.517   .     S
Ni6    Ni5     2.525   1_455 S
Ni6    Ni9     2.525   1_455 S
Ni6    Ni21    2.490   1_455 S
Ni7    Ni8     2.525   .     S
Ni7    Ni11    2.525   .     S
Ni7    Ni12    2.525   .     S
Ni7    Ni18    2.488   .     S
Ni7    Ni19    2.511   .     S
Ni7    Ni23    2.517   .     S
Ni8    Ni9     2.525   .     S
Ni8    Ni12    2.525   .     S
Ni8    Ni13    2.525   .     S
Ni8    Ni19    2.504   .     S
Ni8    Ni20    2.509   .     S
Ni8    Ni24    2.534   .     S
Ni9    Ni13    2.525   .     S
Ni9    Ni20    2.509   .     S
Ni9    Ni21    2.489   .     S
Ni9    Ni25    2.518   .     S
Ni9    Ni6     2.525   1_655 S
Ni9    Ni10    2.525   1_655 S
Ni10   Ni11    2.525   .     S
Ni10   Ni14    2.525   .     S
Ni10   Ni15    2.525   .     S
Ni10   Ni22    2.503   .     S
Ni10   Ni26    2.516   .     S
Ni10   Ni9     2.525   1_455 S
Ni10   Ni13    2.525   1_455 S
Ni10   Ni25    2.508   1_455 S
Ni11   Ni12    2.525   .     S
Ni11   Ni15    2.525   .     S
Ni11   Ni16    2.525   .     S
Ni11   Ni22    2.501   .     S
Ni11   Ni23    2.509   .     S
Ni11   Ni27    2.511   .     S
Ni12   Ni13    2.525   .     S
Ni12   Ni16    2.525   .     S
Ni12   Ni17    2.525   .     S
Ni12   Ni23    2.498   .     S
Ni12   Ni24    2.525   .     S
Ni12   Ni28    2.515   .     S
Ni13   Ni17    2.525   .     S
Ni13   Ni24    2.523   .     S
Ni13   Ni25    2.502   .     S
Ni13   Ni29    2.513   .     S
Ni13   Ni10    2.525   1_655 S
Ni13   Ni14    2.525   1_655 S
Ni14   Ni15    2.525   .     S
Ni14   Ni26    2.503   .     S
Ni14   Ni30    2.507   .     S
Ni14   Ni2     2.525   1_565 S
Ni14   Ni3     2.525   1_565 S
Ni14   Ni13    2.525   1_455 S
Ni14   Ni17    2.525   1_455 S
Ni14   Ni29    2.499   1_455 S
Ni15   Ni16    2.525   .     S
Ni15   Ni26    2.505   .     S
Ni15   Ni27    2.503   .     S
Ni15   Ni31    2.515   .     S
Ni15   Ni3     2.525   1_565 S
Ni15   Ni4     2.525   1_565 S
Ni16   Ni17    2.525   .     S
Ni16   Ni27    2.498   .     S
Ni16   Ni28    2.505   .     S
Ni16   Ni32    2.505   .     S
Ni16   Ni4     2.525   1_565 S
Ni16   Ni5     2.525   1_565 S
Ni17   Ni28    2.506   .     S
Ni17   Ni29    2.506   .     S
Ni17   Ni33    2.511   .     S
Ni17   Ni14    2.525   1_655 S
Ni17   Ni2     2.525   1_665 S
Ni17   Ni5     2.525   1_565 S
Ni18   Ni19    2.528   .     S
Ni18   Ni22    2.523   .     S
Ni18   Ni23    2.524   .     S
Ni18   Ni37    2.506   .     S
Ni18   Ni45    2.518   .     S
Ni18   Ni21    2.530   1_455 S
Ni18   Ni30    2.525   1_545 S
Ni18   Ni33    2.535   1_445 S
Ni18   Ni42    2.507   1_455 S
Ni19   Ni20    2.518   .     S
Ni19   Ni23    2.515   .     S
Ni19   Ni24    2.513   .     S
Ni19   Ni36    2.524   .     S
Ni19   Ni37    2.489   .     S
Ni19   Ni48    2.559   .     S
Ni19   Ni30    2.536   1_545 S
Ni19   Ni31    2.519   1_545 S
Ni20   Ni21    2.525   .     S
Ni20   Ni24    2.514   .     S
Ni20   Ni25    2.516   .     S
Ni20   Ni36    2.521   .     S
Ni20   Ni38    2.490   .     S
Ni20   Ni49    2.559   .     S
Ni20   Ni31    2.520   1_545 S
Ni20   Ni32    2.535   1_545 S
Ni21   Ni25    2.527   .     S
Ni21   Ni38    2.505   .     S
Ni21   Ni41    2.522   .     S
Ni21   Ni42    2.510   .     S
Ni21   Ni6     2.490   1_655 S
Ni21   Ni18    2.530   1_655 S
Ni21   Ni22    2.526   1_655 S
Ni21   Ni32    2.523   1_545 S
Ni21   Ni33    2.532   1_545 S
Ni22   Ni23    2.534   .     S
Ni22   Ni26    2.525   .     S
Ni22   Ni27    2.523   .     S
Ni22   Ni39    2.510   .     S
Ni22   Ni45    2.511   .     S
Ni22   Ni21    2.526   1_455 S
Ni22   Ni25    2.533   1_455 S
Ni22   Ni41    2.507   1_455 S
Ni23   Ni24    2.517   .     S
Ni23   Ni27    2.526   .     S
Ni23   Ni28    2.516   .     S
Ni23   Ni45    2.503   .     S
Ni23   Ni47    2.515   .     S
Ni23   Ni48    2.569   .     S
Ni24   Ni25    2.516   .     S
Ni24   Ni28    2.527   .     S
Ni24   Ni29    2.528   .     S
Ni24   Ni35    2.511   .     S
Ni24   Ni48    2.531   .     S
Ni24   Ni49    2.531   .     S
Ni25   Ni29    2.516   .     S
Ni25   Ni41    2.501   .     S
Ni25   Ni46    2.513   .     S
Ni25   Ni49    2.567   .     S
Ni25   Ni10    2.508   1_655 S
Ni25   Ni22    2.533   1_655 S
Ni25   Ni26    2.527   1_655 S
Ni26   Ni27    2.532   .     S
Ni26   Ni30    2.526   .     S
Ni26   Ni31    2.538   .     S
Ni26   Ni34    2.506   .     S
Ni26   Ni39    2.502   .     S
Ni26   Ni25    2.527   1_455 S
Ni26   Ni29    2.515   1_455 S
Ni26   Ni46    2.526   1_455 S
Ni27   Ni28    2.519   .     S
Ni27   Ni31    2.539   .     S
Ni27   Ni32    2.528   .     S
Ni27   Ni39    2.502   .     S
Ni27   Ni40    2.511   .     S
Ni27   Ni47    2.529   .     S
Ni28   Ni29    2.534   .     S
Ni28   Ni32    2.525   .     S
Ni28   Ni33    2.525   .     S
Ni28   Ni35    2.505   .     S
Ni28   Ni44    2.530   .     S
Ni28   Ni47    2.506   .     S
Ni29   Ni33    2.526   .     S
Ni29   Ni35    2.507   .     S
Ni29   Ni43    2.535   .     S
Ni29   Ni46    2.511   .     S
Ni29   Ni14    2.499   1_655 S
Ni29   Ni26    2.515   1_655 S
Ni29   Ni30    2.524   1_655 S
Ni30   Ni31    2.528   .     S
Ni30   Ni34    2.502   .     S
Ni30   Ni29    2.524   1_455 S
Ni30   Ni2     2.492   1_565 S
Ni30   Ni18    2.525   1_565 S
Ni30   Ni3     2.494   1_565 S
Ni30   Ni19    2.536   1_565 S
Ni30   Ni33    2.521   1_455 S
Ni30   Ni37    2.517   1_565 S
Ni30   Ni43    2.527   1_455 S
Ni31   Ni32    2.529   .     S
Ni31   Ni34    2.499   .     S
Ni31   Ni40    2.499   .     S
Ni31   Ni3     2.492   1_565 S
Ni31   Ni19    2.519   1_565 S
Ni31   Ni20    2.520   1_565 S
Ni31   Ni4     2.491   1_565 S
Ni31   Ni36    2.570   1_565 S
Ni32   Ni33    2.521   .     S
Ni32   Ni40    2.499   .     S
Ni32   Ni44    2.529   .     S
Ni32   Ni4     2.495   1_565 S
Ni32   Ni5     2.489   1_565 S
Ni32   Ni21    2.523   1_565 S
Ni32   Ni20    2.535   1_565 S
Ni32   Ni38    2.518   1_565 S
Ni33   Ni43    2.515   .     S
Ni33   Ni44    2.511   .     S
Ni33   Ni30    2.521   1_655 S
Ni33   Ni2     2.502   1_665 S
Ni33   Ni18    2.535   1_665 S
Ni33   Ni5     2.504   1_565 S
Ni33   Ni21    2.532   1_565 S
Ni33   Ni42    2.512   1_565 S
Ni34   Ni39    2.531   .     S
Ni34   Ni40    2.523   .     S
Ni34   Ni50    2.476   .     S
Ni34   Ni52    2.503   .     S
Ni34   Ni36    2.549   1_565 S
Ni34   Ni37    2.523   1_565 S
Ni34   Ni43    2.532   1_455 S
Ni34   Ni46    2.557   1_455 S
Ni34   Ni51    2.484   1_565 S
Ni35   Ni43    2.512   .     S
Ni35   Ni44    2.510   .     S
Ni35   Ni46    2.508   .     S
Ni35   Ni47    2.510   .     S
Ni35   Ni48    2.532   .     S
Ni35   Ni49    2.531   .     S
Ni35   Ni63    2.629   .     S
Ni35   Ni64    2.567   .     S
Ni35   Ni65    2.561   .     S
Ni36   Ni37    2.526   .     S
Ni36   Ni38    2.525   .     S
Ni36   Ni48    2.484   .     S
Ni36   Ni49    2.481   .     S
Ni36   Ni51    2.477   .     S
Ni36   Ni53    2.476   .     S
Ni36   Ni58    2.701   .     S
Ni36   Ni34    2.549   1_545 S
Ni36   Ni31    2.570   1_545 S
Ni36   Ni40    2.545   1_545 S
Ni37   Ni45    2.512   .     S
Ni37   Ni48    2.530   .     S
Ni37   Ni51    2.498   .     S
Ni37   Ni57    2.493   .     S
Ni37   Ni61    2.517   .     S
Ni37   Ni34    2.523   1_545 S
Ni37   Ni30    2.517   1_545 S
Ni37   Ni42    2.526   1_455 S
Ni37   Ni43    2.529   1_445 S
Ni38   Ni41    2.514   .     S
Ni38   Ni42    2.525   .     S
Ni38   Ni49    2.532   .     S
Ni38   Ni53    2.498   .     S
Ni38   Ni55    2.494   .     S
Ni38   Ni59    2.514   .     S
Ni38   Ni32    2.518   1_545 S
Ni38   Ni40    2.520   1_545 S
Ni38   Ni44    2.529   1_545 S
Ni39   Ni40    2.533   .     S
Ni39   Ni45    2.535   .     S
Ni39   Ni47    2.541   .     S
Ni39   Ni52    2.495   .     S
Ni39   Ni60    2.494   .     S
Ni39   Ni62    2.490   .     S
Ni39   Ni41    2.533   1_455 S
Ni39   Ni46    2.542   1_455 S
Ni40   Ni44    2.534   .     S
Ni40   Ni47    2.557   .     S
Ni40   Ni52    2.504   .     S
Ni40   Ni54    2.476   .     S
Ni40   Ni38    2.520   1_565 S
Ni40   Ni36    2.545   1_565 S
Ni40   Ni53    2.491   1_565 S
Ni41   Ni42    2.524   .     S
Ni41   Ni46    2.516   .     S
Ni41   Ni49    2.540   .     S
Ni41   Ni59    2.495   .     S
Ni41   Ni39    2.533   1_655 S
Ni41   Ni22    2.507   1_655 S
Ni41   Ni45    2.544   1_655 S
Ni41   Ni56    2.502   1_655 S
Ni41   Ni60    2.504   1_655 S
Ni42   Ni55    2.498   .     S
Ni42   Ni37    2.526   1_655 S
Ni42   Ni18    2.507   1_655 S
Ni42   Ni33    2.512   1_545 S
Ni42   Ni43    2.520   1_545 S
Ni42   Ni44    2.521   1_545 S
Ni42   Ni45    2.523   1_655 S
Ni42   Ni56    2.526   1_655 S
Ni42   Ni57    2.497   1_655 S
Ni43   Ni44    2.511   .     S
Ni43   Ni46    2.541   .     S
Ni43   Ni63    2.550   .     S
Ni43   Ni34    2.532   1_655 S
Ni43   Ni42    2.520   1_565 S
Ni43   Ni37    2.529   1_665 S
Ni43   Ni30    2.527   1_655 S
Ni43   Ni50    2.484   1_655 S
Ni43   Ni57    2.505   1_665 S
Ni44   Ni47    2.538   .     S
Ni44   Ni54    2.482   .     S
Ni44   Ni63    2.551   .     S
Ni44   Ni38    2.529   1_565 S
Ni44   Ni42    2.521   1_565 S
Ni44   Ni55    2.508   1_565 S
Ni45   Ni47    2.519   .     S
Ni45   Ni48    2.537   .     S
Ni45   Ni56    2.501   .     S
Ni45   Ni61    2.494   .     S
Ni45   Ni62    2.507   .     S
Ni45   Ni41    2.544   1_455 S
Ni45   Ni42    2.523   1_455 S
Ni46   Ni49    2.514   .     S
Ni46   Ni64    2.492   .     S
Ni46   Ni39    2.542   1_655 S
Ni46   Ni34    2.557   1_655 S
Ni46   Ni26    2.526   1_655 S
Ni46   Ni50    2.500   1_655 S
Ni46   Ni60    2.496   1_655 S
Ni47   Ni48    2.516   .     S
Ni47   Ni54    2.500   .     S
Ni47   Ni62    2.498   .     S
Ni47   Ni65    2.494   .     S
Ni48   Ni49    2.482   .     S
Ni48   Ni58    2.746   .     S
Ni48   Ni61    2.473   .     S
Ni48   Ni65    2.510   .     S
Ni49   Ni58    2.752   .     S
Ni49   Ni59    2.473   .     S
Ni49   Ni64    2.512   .     S
Ni50   Ni52    2.492   .     S
Ni50   Ni60    2.536   .     S
Ni50   Ni43    2.484   1_455 S
Ni50   Ni46    2.500   1_455 S
Ni50   Ni51    2.462   1_565 S
Ni50   Ni57    2.553   1_565 S
Ni50   Ni63    2.563   1_455 S
Ni50   Ni64    2.515   1_455 S
Ni51   Ni53    2.550   .     S
Ni51   Ni57    2.506   .     S
Ni51   Ni58    2.502   .     S
Ni51   Ni61    2.548   .     S
Ni51   Ni50    2.462   1_545 S
Ni51   Ni34    2.484   1_545 S
Ni51   Ni52    2.511   1_545 S
Ni52   Ni54    2.494   .     S
Ni52   Ni60    2.518   .     S
Ni52   Ni62    2.512   .     S
Ni52   Ni51    2.511   1_565 S
Ni52   Ni53    2.516   1_565 S
Ni53   Ni55    2.509   .     S
Ni53   Ni58    2.504   .     S
Ni53   Ni59    2.540   .     S
Ni53   Ni52    2.516   1_545 S
Ni53   Ni40    2.491   1_545 S
Ni53   Ni54    2.466   1_545 S
Ni54   Ni62    2.537   .     S
Ni54   Ni63    2.560   .     S
Ni54   Ni65    2.518   .     S
Ni54   Ni53    2.466   1_565 S
Ni54   Ni55    2.549   1_565 S
Ni55   Ni59    2.475   .     S
Ni55   Ni54    2.549   1_545 S
Ni55   Ni44    2.508   1_545 S
Ni55   Ni56    2.513   1_655 S
Ni55   Ni57    2.536   1_655 S
Ni55   Ni63    2.487   1_545 S
Ni56   Ni57    2.514   .     S
Ni56   Ni60    2.498   .     S
Ni56   Ni61    2.505   .     S
Ni56   Ni62    2.501   .     S
Ni56   Ni55    2.513   1_455 S
Ni56   Ni41    2.502   1_455 S
Ni56   Ni42    2.526   1_455 S
Ni56   Ni59    2.504   1_455 S
Ni57   Ni61    2.475   .     S
Ni57   Ni55    2.536   1_455 S
Ni57   Ni50    2.553   1_545 S
Ni57   Ni42    2.497   1_455 S
Ni57   Ni43    2.505   1_445 S
Ni57   Ni63    2.489   1_445 S
Ni58   Ni59    2.578   .     S
Ni58   Ni61    2.563   .     S
Ni58   Ni64    2.667   .     S
Ni58   Ni65    2.659   .     S
Ni58   C66     2.246   .     S
Ni58   O73     1.888   .     S
Ni59   Ni64    2.537   .     S
Ni59   O73     2.146   .     S
Ni59   Ni56    2.504   1_655 S
Ni59   Ni60    2.527   1_655 S
Ni60   Ni62    2.491   .     S
Ni60   Ni59    2.527   1_455 S
Ni60   Ni41    2.504   1_455 S
Ni60   Ni46    2.496   1_455 S
Ni60   Ni64    2.490   1_455 S
Ni61   Ni62    2.530   .     S
Ni61   Ni65    2.540   .     S
Ni62   Ni65    2.500   .     S
Ni63   Ni64    2.606   .     S
Ni63   Ni65    2.600   .     S
Ni63   Ni50    2.563   1_655 S
Ni63   Ni57    2.489   1_665 S
Ni63   Ni55    2.487   1_565 S
Ni64   Ni65    2.622   .     S
Ni64   Ni60    2.490   1_655 S
Ni64   Ni50    2.515   1_655 S
C66    C67     1.603   .     S
C66    H68     1.270   .     S
C66    H69     1.098   .     S
C66    H72     1.071   .     S
C67    H70     1.293   .     S
C67    H71     1.089   .     S
C67    O73     1.080   .     S
